# generated using pymatgen
data_MnS2
_symmetry_space_group_name_H-M   'P 1'
_cell_length_a   5.5232
_cell_length_b   5.5232
_cell_length_c   5.5232
_cell_angle_alpha   90.0000
_cell_angle_beta   90.0000
_cell_angle_gamma   90.0000
_symmetry_Int_Tables_number   1
_chemical_formula_structural   MnS2
_chemical_formula_sum   'Mn4 S8'
_cell_volume   168.4851
_cell_formula_units_Z   4
loop_
 _symmetry_equiv_pos_site_id
 _symmetry_equiv_pos_as_xyz
  1  'x, y, z'
loop_
 _atom_site_type_symbol
 _atom_site_label
 _atom_site_symmetry_multiplicity
 _atom_site_fract_x
 _atom_site_fract_y
 _atom_site_fract_z
 _atom_site_occupancy
  Mn  Mn0  1  0.5000  0.5000  0.0000  1
  Mn  Mn1  1  0.5000  0.0000  0.5000  1
  Mn  Mn2  1  0.0000  0.5000  0.5000  1
  Mn  Mn3  1  0.0000  0.0000  0.0000  1
  S  S4  1  0.1192  0.8808  0.3808  1
  S  S5  1  0.8808  0.3808  0.1192  1
  S  S6  1  0.3808  0.1192  0.8808  1
  S  S7  1  0.6192  0.6192  0.6192  1
  S  S8  1  0.8808  0.1192  0.6192  1
  S  S9  1  0.1192  0.6192  0.8808  1
  S  S10  1  0.6192  0.8808  0.1192  1
  S  S11  1  0.3808  0.3808  0.3808  1
