# generated using pymatgen
data_Y2Fe3(SiO4)3
_symmetry_space_group_name_H-M   'P 1'
_cell_length_a   10.6925
_cell_length_b   10.6925
_cell_length_c   10.6925
_cell_angle_alpha   109.4712
_cell_angle_beta   109.4712
_cell_angle_gamma   109.4712
_symmetry_Int_Tables_number   1
_chemical_formula_structural   Y2Fe3(SiO4)3
_chemical_formula_sum   'Y8 Fe12 Si12 O48'
_cell_volume   941.0561
_cell_formula_units_Z   4
loop_
 _symmetry_equiv_pos_site_id
 _symmetry_equiv_pos_as_xyz
  1  'x, y, z'
loop_
 _atom_site_type_symbol
 _atom_site_label
 _atom_site_symmetry_multiplicity
 _atom_site_fract_x
 _atom_site_fract_y
 _atom_site_fract_z
 _atom_site_occupancy
  Y  Y0  1  0.0000  0.0000  0.0000  1
  Y  Y1  1  0.5000  0.0000  0.0000  1
  Y  Y2  1  0.5000  0.5000  0.0000  1
  Y  Y3  1  0.0000  0.5000  0.5000  1
  Y  Y4  1  0.0000  0.0000  0.5000  1
  Y  Y5  1  0.5000  0.5000  0.5000  1
  Y  Y6  1  0.0000  0.5000  0.0000  1
  Y  Y7  1  0.5000  0.0000  0.5000  1
  Fe  Fe8  1  0.8750  0.7500  0.6250  1
  Fe  Fe9  1  0.8750  0.6250  0.2500  1
  Fe  Fe10  1  0.6250  0.8750  0.7500  1
  Fe  Fe11  1  0.2500  0.8750  0.6250  1
  Fe  Fe12  1  0.7500  0.6250  0.8750  1
  Fe  Fe13  1  0.6250  0.2500  0.8750  1
  Fe  Fe14  1  0.1250  0.2500  0.3750  1
  Fe  Fe15  1  0.1250  0.3750  0.7500  1
  Fe  Fe16  1  0.3750  0.1250  0.2500  1
  Fe  Fe17  1  0.7500  0.1250  0.3750  1
  Fe  Fe18  1  0.2500  0.3750  0.1250  1
  Fe  Fe19  1  0.3750  0.7500  0.1250  1
  Si  Si20  1  0.1250  0.7500  0.8750  1
  Si  Si21  1  0.7500  0.8750  0.1250  1
  Si  Si22  1  0.2500  0.6250  0.3750  1
  Si  Si23  1  0.6250  0.7500  0.3750  1
  Si  Si24  1  0.8750  0.1250  0.7500  1
  Si  Si25  1  0.3750  0.2500  0.6250  1
  Si  Si26  1  0.3750  0.6250  0.7500  1
  Si  Si27  1  0.2500  0.1250  0.8750  1
  Si  Si28  1  0.6250  0.3750  0.2500  1
  Si  Si29  1  0.1250  0.8750  0.2500  1
  Si  Si30  1  0.7500  0.3750  0.6250  1
  Si  Si31  1  0.8750  0.2500  0.1250  1
  O  O32  1  0.5977  0.8929  0.3718  1
  O  O33  1  0.3718  0.5977  0.8929  1
  O  O34  1  0.2742  0.2952  0.9023  1
  O  O35  1  0.4789  0.6071  0.2048  1
  O  O36  1  0.2952  0.8929  0.0211  1
  O  O37  1  0.1282  0.0211  0.2258  1
  O  O38  1  0.3718  0.2742  0.4789  1
  O  O39  1  0.8929  0.3718  0.5977  1
  O  O40  1  0.2048  0.2258  0.5977  1
  O  O41  1  0.4789  0.3718  0.2742  1
  O  O42  1  0.8929  0.0211  0.2952  1
  O  O43  1  0.6071  0.9023  0.1282  1
  O  O44  1  0.9023  0.1282  0.6071  1
  O  O45  1  0.2742  0.4789  0.3718  1
  O  O46  1  0.5977  0.2048  0.2258  1
  O  O47  1  0.2258  0.5977  0.2048  1
  O  O48  1  0.0211  0.2952  0.8929  1
  O  O49  1  0.9023  0.2742  0.2952  1
  O  O50  1  0.0211  0.2258  0.1282  1
  O  O51  1  0.7952  0.7742  0.4023  1
  O  O52  1  0.2952  0.9023  0.2742  1
  O  O53  1  0.6071  0.2048  0.4789  1
  O  O54  1  0.2258  0.1282  0.0211  1
  O  O55  1  0.1282  0.6071  0.9023  1
  O  O56  1  0.4023  0.1071  0.6282  1
  O  O57  1  0.6282  0.4023  0.1071  1
  O  O58  1  0.7258  0.7048  0.0977  1
  O  O59  1  0.5211  0.3929  0.7952  1
  O  O60  1  0.7048  0.1071  0.9789  1
  O  O61  1  0.8718  0.9789  0.7742  1
  O  O62  1  0.6282  0.7258  0.5211  1
  O  O63  1  0.1071  0.6282  0.4023  1
  O  O64  1  0.8718  0.3929  0.0977  1
  O  O65  1  0.7742  0.8718  0.9789  1
  O  O66  1  0.3929  0.7952  0.5211  1
  O  O67  1  0.7048  0.0977  0.7258  1
  O  O68  1  0.7952  0.5211  0.3929  1
  O  O69  1  0.9789  0.7742  0.8718  1
  O  O70  1  0.0977  0.7258  0.7048  1
  O  O71  1  0.9789  0.7048  0.1071  1
  O  O72  1  0.7742  0.4023  0.7952  1
  O  O73  1  0.4023  0.7952  0.7742  1
  O  O74  1  0.7258  0.5211  0.6282  1
  O  O75  1  0.0977  0.8718  0.3929  1
  O  O76  1  0.3929  0.0977  0.8718  1
  O  O77  1  0.1071  0.9789  0.7048  1
  O  O78  1  0.5211  0.6282  0.7258  1
  O  O79  1  0.2048  0.4789  0.6071  1
