# generated using pymatgen
data_VIn3S4
_symmetry_space_group_name_H-M   'P 1'
_cell_length_a   6.4693
_cell_length_b   6.4693
_cell_length_c   6.4693
_cell_angle_alpha   109.4712
_cell_angle_beta   109.4712
_cell_angle_gamma   109.4712
_symmetry_Int_Tables_number   1
_chemical_formula_structural   VIn3S4
_chemical_formula_sum   'V1 In3 S4'
_cell_volume   208.4236
_cell_formula_units_Z   1
loop_
 _symmetry_equiv_pos_site_id
 _symmetry_equiv_pos_as_xyz
  1  'x, y, z'
loop_
 _atom_site_type_symbol
 _atom_site_label
 _atom_site_symmetry_multiplicity
 _atom_site_fract_x
 _atom_site_fract_y
 _atom_site_fract_z
 _atom_site_occupancy
  V  V0  1  0.0000  0.0000  0.0000  1
  In  In1  1  0.5000  0.5000  0.0000  1
  In  In2  1  0.0000  0.5000  0.5000  1
  In  In3  1  0.5000  0.0000  0.5000  1
  S  S4  1  0.3348  0.0000  0.0000  1
  S  S5  1  0.0000  0.0000  0.3348  1
  S  S6  1  0.6652  0.6652  0.6652  1
  S  S7  1  0.0000  0.3348  0.0000  1
